output/Cargas_BT_DO05_.dss
New "Load.BT_1284_M1" bus1="UC14865.2.3.4" phases=2 conn=delta model=2 kv=0.38 kw = 281.1545907367456 pf=0.92 status=variable vmaxpu=1.5 vminpu=0.93 daily="RES_2_DO" 
New "Load.BT_1284_M2" bus1="UC14865.2.3.4" phases=2 conn=delta model=3 kv=0.38 kw = 281.1545907367456 pf=0.92 status=variable vmaxpu=1.5 vminpu=0.93 daily="RES_2_DO"
 
New "Load.BT_7585_M1" bus1="UC15172.1.4" phases=1 conn=delta model=2 kv=0.22 kw = 182.60555893211315 pf=0.92 status=variable vmaxpu=1.5 vminpu=0.93 daily="RES_2_DO" 
New "Load.BT_7585_M2" bus1="UC15172.1.4" phases=1 conn=delta model=3 kv=0.22 kw = 182.60555893211315 pf=0.92 status=variable vmaxpu=1.5 vminpu=0.93 daily="RES_2_DO"
 
New "Load.BT_1321_M1" bus1="UC15176.1.2.3.4" phases=3 conn=delta model=2 kv=0.38 kw = 0.0 pf=0.92 status=variable vmaxpu=1.5 vminpu=0.93 daily="COM_13_DO" 
New "Load.BT_1321_M2" bus1="UC15176.1.2.3.4" phases=3 conn=delta model=3 kv=0.38 kw = 0.0 pf=0.92 status=variable vmaxpu=1.5 vminpu=0.93 daily="COM_13_DO"
 
New "Load.BT_1284_M1" bus1="UC14865.3.1.4" phases=2 conn=delta model=2 kv=0.38 kw = 226.08307296356867 pf=0.92 status=variable vmaxpu=1.5 vminpu=0.93 daily="RES_2_DO" 
New "Load.BT_1284_M2" bus1="UC14865.3.1.4" phases=2 conn=delta model=3 kv=0.38 kw = 226.08307296356867 pf=0.92 status=variable vmaxpu=1.5 vminpu=0.93 daily="RES_2_DO"
 
New "Load.BT_7553_M1" bus1="UC20061.1.2.3.4" phases=3 conn=delta model=2 kv=0.38 kw = 0.0 pf=0.92 status=variable vmaxpu=1.5 vminpu=0.93 daily="RES_7_DO" 
New "Load.BT_7553_M2" bus1="UC20061.1.2.3.4" phases=3 conn=delta model=3 kv=0.38 kw = 0.0 pf=0.92 status=variable vmaxpu=1.5 vminpu=0.93 daily="RES_7_DO"
 
New "Load.BT_2523_M1" bus1="UC20136.3.4" phases=1 conn=delta model=2 kv=0.22 kw = 0.0 pf=0.92 status=variable vmaxpu=1.5 vminpu=0.93 daily="RES_3_DO" 
New "Load.BT_2523_M2" bus1="UC20136.3.4" phases=1 conn=delta model=3 kv=0.22 kw = 0.0 pf=0.92 status=variable vmaxpu=1.5 vminpu=0.93 daily="RES_3_DO"
 
New "Load.BT_1656_M1" bus1="UC1545.1.4" phases=1 conn=delta model=2 kv=0.22 kw = 0.0 pf=0.92 status=variable vmaxpu=1.5 vminpu=0.93 daily="RES_3_DO" 
New "Load.BT_1656_M2" bus1="UC1545.1.4" phases=1 conn=delta model=3 kv=0.22 kw = 0.0 pf=0.92 status=variable vmaxpu=1.5 vminpu=0.93 daily="RES_3_DO"
 
New "Load.BT_446_M1" bus1="UC16148.1.2.3.4" phases=3 conn=delta model=2 kv=0.38 kw = 0.0 pf=0.92 status=variable vmaxpu=1.5 vminpu=0.93 daily="RES_3_DO" 
New "Load.BT_446_M2" bus1="UC16148.1.2.3.4" phases=3 conn=delta model=3 kv=0.38 kw = 0.0 pf=0.92 status=variable vmaxpu=1.5 vminpu=0.93 daily="RES_3_DO"
 
New "Load.BT_7293_M1" bus1="UC20138.2.3.4" phases=2 conn=delta model=2 kv=0.38 kw = 0.0 pf=0.92 status=variable vmaxpu=1.5 vminpu=0.93 daily="RES_7_DO" 
New "Load.BT_7293_M2" bus1="UC20138.2.3.4" phases=2 conn=delta model=3 kv=0.38 kw = 0.0 pf=0.92 status=variable vmaxpu=1.5 vminpu=0.93 daily="RES_7_DO"
 
New "Load.BT_1288_M1" bus1="UC8495.1.4" phases=1 conn=delta model=2 kv=0.22 kw = 0.0 pf=0.92 status=variable vmaxpu=1.5 vminpu=0.93 daily="RES_7_DO" 
New "Load.BT_1288_M2" bus1="UC8495.1.4" phases=1 conn=delta model=3 kv=0.22 kw = 0.0 pf=0.92 status=variable vmaxpu=1.5 vminpu=0.93 daily="RES_7_DO"
 
New "Load.BT_2743_M1" bus1="UC6417.2.4" phases=1 conn=delta model=2 kv=0.22 kw = 0.0 pf=0.92 status=variable vmaxpu=1.5 vminpu=0.93 daily="RES_3_DO" 
New "Load.BT_2743_M2" bus1="UC6417.2.4" phases=1 conn=delta model=3 kv=0.22 kw = 0.0 pf=0.92 status=variable vmaxpu=1.5 vminpu=0.93 daily="RES_3_DO"
 
New "Load.BT_7794_M1" bus1="UC16133.1.4" phases=1 conn=delta model=2 kv=0.22 kw = 0.0 pf=0.92 status=variable vmaxpu=1.5 vminpu=0.93 daily="RES_7_DO" 
New "Load.BT_7794_M2" bus1="UC16133.1.4" phases=1 conn=delta model=3 kv=0.22 kw = 0.0 pf=0.92 status=variable vmaxpu=1.5 vminpu=0.93 daily="RES_7_DO"
 
New "Load.BT_660_M1" bus1="UC15632.3.4" phases=1 conn=delta model=2 kv=0.22 kw = 0.0 pf=0.92 status=variable vmaxpu=1.5 vminpu=0.93 daily="RES_3_DO" 
New "Load.BT_660_M2" bus1="UC15632.3.4" phases=1 conn=delta model=3 kv=0.22 kw = 0.0 pf=0.92 status=variable vmaxpu=1.5 vminpu=0.93 daily="RES_3_DO"
 
New "Load.BT_8598_M1" bus1="UC16137.1.2.3.4" phases=3 conn=delta model=2 kv=0.38 kw = 0.0 pf=0.92 status=variable vmaxpu=1.5 vminpu=0.93 daily="RES_3_DO" 
New "Load.BT_8598_M2" bus1="UC16137.1.2.3.4" phases=3 conn=delta model=3 kv=0.38 kw = 0.0 pf=0.92 status=variable vmaxpu=1.5 vminpu=0.93 daily="RES_3_DO"
 
New "Load.BT_8649_M1" bus1="UC16131.1.2.3.4" phases=3 conn=delta model=2 kv=0.38 kw = 0.0 pf=0.92 status=variable vmaxpu=1.5 vminpu=0.93 daily="RES_3_DO" 
New "Load.BT_8649_M2" bus1="UC16131.1.2.3.4" phases=3 conn=delta model=3 kv=0.38 kw = 0.0 pf=0.92 status=variable vmaxpu=1.5 vminpu=0.93 daily="RES_3_DO"
 
New "Load.BT_8569_M1" bus1="UC20135.1.2.4" phases=2 conn=delta model=2 kv=0.38 kw = 0.0 pf=0.92 status=variable vmaxpu=1.5 vminpu=0.93 daily="RES_3_DO" 
New "Load.BT_8569_M2" bus1="UC20135.1.2.4" phases=2 conn=delta model=3 kv=0.38 kw = 0.0 pf=0.92 status=variable vmaxpu=1.5 vminpu=0.93 daily="RES_3_DO"
 
New "Load.BT_856_M1" bus1="UC1889.3.4" phases=1 conn=delta model=2 kv=0.22 kw = 0.0 pf=0.92 status=variable vmaxpu=1.5 vminpu=0.93 daily="RES_7_DO" 
New "Load.BT_856_M2" bus1="UC1889.3.4" phases=1 conn=delta model=3 kv=0.22 kw = 0.0 pf=0.92 status=variable vmaxpu=1.5 vminpu=0.93 daily="RES_7_DO"
 
New "Load.BT_2601_M1" bus1="UC15849.2.4" phases=1 conn=delta model=2 kv=0.22 kw = 37.89017291854446 pf=0.92 status=variable vmaxpu=1.5 vminpu=0.93 daily="RES_5_DO" 
New "Load.BT_2601_M2" bus1="UC15849.2.4" phases=1 conn=delta model=3 kv=0.22 kw = 37.89017291854446 pf=0.92 status=variable vmaxpu=1.5 vminpu=0.93 daily="RES_5_DO"
 
New "Load.BT_7733_M1" bus1="UC20092.2.3.4" phases=2 conn=delta model=2 kv=0.38 kw = 321.21853919682104 pf=0.92 status=variable vmaxpu=1.5 vminpu=0.93 daily="RES_3_DO" 
New "Load.BT_7733_M2" bus1="UC20092.2.3.4" phases=2 conn=delta model=3 kv=0.38 kw = 321.21853919682104 pf=0.92 status=variable vmaxpu=1.5 vminpu=0.93 daily="RES_3_DO"
 
New "Load.BT_7733_M1" bus1="UC20093.3.1.4" phases=2 conn=delta model=2 kv=0.38 kw = 127.32722426132996 pf=0.92 status=variable vmaxpu=1.5 vminpu=0.93 daily="RES_7_DO" 
New "Load.BT_7733_M2" bus1="UC20093.3.1.4" phases=2 conn=delta model=3 kv=0.38 kw = 127.32722426132996 pf=0.92 status=variable vmaxpu=1.5 vminpu=0.93 daily="RES_7_DO"
 
New "Load.BT_7734_M1" bus1="UC20094.2.3.4" phases=2 conn=delta model=2 kv=0.38 kw = 143.53250734913559 pf=0.92 status=variable vmaxpu=1.5 vminpu=0.93 daily="RES_7_DO" 
New "Load.BT_7734_M2" bus1="UC20094.2.3.4" phases=2 conn=delta model=3 kv=0.38 kw = 143.53250734913559 pf=0.92 status=variable vmaxpu=1.5 vminpu=0.93 daily="RES_7_DO"
 
New "Load.BT_2245_M1" bus1="UC20095.1.2.4" phases=2 conn=delta model=2 kv=0.38 kw = 101.20584111680662 pf=0.92 status=variable vmaxpu=1.5 vminpu=0.93 daily="RES_3_DO" 
New "Load.BT_2245_M2" bus1="UC20095.1.2.4" phases=2 conn=delta model=3 kv=0.38 kw = 101.20584111680662 pf=0.92 status=variable vmaxpu=1.5 vminpu=0.93 daily="RES_3_DO"
 
New "Load.BT_1794_M1" bus1="UC15505.3.4" phases=1 conn=delta model=2 kv=0.22 kw = 86.95502806291101 pf=0.92 status=variable vmaxpu=1.5 vminpu=0.93 daily="RES_2_DO" 
New "Load.BT_1794_M2" bus1="UC15505.3.4" phases=1 conn=delta model=3 kv=0.22 kw = 86.95502806291101 pf=0.92 status=variable vmaxpu=1.5 vminpu=0.93 daily="RES_2_DO"
 
New "Load.BT_657_M1" bus1="UC14583.1.4" phases=1 conn=delta model=2 kv=0.22 kw = 513.034665571175 pf=0.92 status=variable vmaxpu=1.5 vminpu=0.93 daily="RES_2_DO" 
New "Load.BT_657_M2" bus1="UC14583.1.4" phases=1 conn=delta model=3 kv=0.22 kw = 513.034665571175 pf=0.92 status=variable vmaxpu=1.5 vminpu=0.93 daily="RES_2_DO"
 
New "Load.BT_1284_M1" bus1="UC13787.3.1.4" phases=2 conn=delta model=2 kv=0.38 kw = 205.79356641555609 pf=0.92 status=variable vmaxpu=1.5 vminpu=0.93 daily="RES_2_DO" 
New "Load.BT_1284_M2" bus1="UC13787.3.1.4" phases=2 conn=delta model=3 kv=0.38 kw = 205.79356641555609 pf=0.92 status=variable vmaxpu=1.5 vminpu=0.93 daily="RES_2_DO"
 
New "Load.BT_7306_M1" bus1="UC15143.3.4" phases=1 conn=delta model=2 kv=0.22 kw = 344.9216113162137 pf=0.92 status=variable vmaxpu=1.5 vminpu=0.93 daily="RES_2_DO" 
New "Load.BT_7306_M2" bus1="UC15143.3.4" phases=1 conn=delta model=3 kv=0.22 kw = 344.9216113162137 pf=0.92 status=variable vmaxpu=1.5 vminpu=0.93 daily="RES_2_DO"
 
New "Load.BT_7829_M1" bus1="UC15152.2.4" phases=1 conn=delta model=2 kv=0.22 kw = 498.5421608940232 pf=0.92 status=variable vmaxpu=1.5 vminpu=0.93 daily="RES_2_DO" 
New "Load.BT_7829_M2" bus1="UC15152.2.4" phases=1 conn=delta model=3 kv=0.22 kw = 498.5421608940232 pf=0.92 status=variable vmaxpu=1.5 vminpu=0.93 daily="RES_2_DO"
 
New "Load.BT_2405_M1" bus1="UC4970.2.3.4" phases=2 conn=delta model=2 kv=0.38 kw = 1616.735182284225 pf=0.92 status=variable vmaxpu=1.5 vminpu=0.93 daily="RES_4_DO" 
New "Load.BT_2405_M2" bus1="UC4970.2.3.4" phases=2 conn=delta model=3 kv=0.38 kw = 1616.735182284225 pf=0.92 status=variable vmaxpu=1.5 vminpu=0.93 daily="RES_4_DO"
 
New "Load.BT_2823_M1" bus1="UC4516.2.4" phases=1 conn=delta model=2 kv=0.22 kw = 124.6355402235058 pf=0.92 status=variable vmaxpu=1.5 vminpu=0.93 daily="RES_2_DO" 
New "Load.BT_2823_M2" bus1="UC4516.2.4" phases=1 conn=delta model=3 kv=0.22 kw = 124.6355402235058 pf=0.92 status=variable vmaxpu=1.5 vminpu=0.93 daily="RES_2_DO"
 
New "Load.BT_7463_M1" bus1="UC4971.2.3.4" phases=2 conn=delta model=2 kv=0.38 kw = 522.4333338530536 pf=0.92 status=variable vmaxpu=1.5 vminpu=0.93 daily="RES_1_DO" 
New "Load.BT_7463_M2" bus1="UC4971.2.3.4" phases=2 conn=delta model=3 kv=0.38 kw = 522.4333338530536 pf=0.92 status=variable vmaxpu=1.5 vminpu=0.93 daily="RES_1_DO"
 
New "Load.BT_2049_M1" bus1="UC4838.2.3.4" phases=2 conn=delta model=2 kv=0.38 kw = 102.97728056340968 pf=0.92 status=variable vmaxpu=1.5 vminpu=0.93 daily="RES_13_DO" 
New "Load.BT_2049_M2" bus1="UC4838.2.3.4" phases=2 conn=delta model=3 kv=0.38 kw = 102.97728056340968 pf=0.92 status=variable vmaxpu=1.5 vminpu=0.93 daily="RES_13_DO"
 
New "Load.BT_874_M1" bus1="UC13502.1.2.3.4" phases=3 conn=delta model=2 kv=0.38 kw = 1155.0154441571626 pf=0.92 status=variable vmaxpu=1.5 vminpu=0.93 daily="RES_13_DO" 
New "Load.BT_874_M2" bus1="UC13502.1.2.3.4" phases=3 conn=delta model=3 kv=0.38 kw = 1155.0154441571626 pf=0.92 status=variable vmaxpu=1.5 vminpu=0.93 daily="RES_13_DO"
 
New "Load.BT_893_M1" bus1="UC9729.1.2.3.4" phases=3 conn=delta model=2 kv=0.38 kw = 1179.575135455281 pf=0.92 status=variable vmaxpu=1.5 vminpu=0.93 daily="COM_1_DO" 
New "Load.BT_893_M2" bus1="UC9729.1.2.3.4" phases=3 conn=delta model=3 kv=0.38 kw = 1179.575135455281 pf=0.92 status=variable vmaxpu=1.5 vminpu=0.93 daily="COM_1_DO"
 
New "Load.BT_6901_M1" bus1="UC15134.3.4" phases=1 conn=delta model=2 kv=0.22 kw = 562.3091814734912 pf=0.92 status=variable vmaxpu=1.5 vminpu=0.93 daily="RES_2_DO" 
New "Load.BT_6901_M2" bus1="UC15134.3.4" phases=1 conn=delta model=3 kv=0.22 kw = 562.3091814734912 pf=0.92 status=variable vmaxpu=1.5 vminpu=0.93 daily="RES_2_DO"
 
New "Load.BT_2271_M1" bus1="UC3269.2.4" phases=1 conn=delta model=2 kv=0.22 kw = 8.695502806291103 pf=0.92 status=variable vmaxpu=1.5 vminpu=0.93 daily="RES_2_DO" 
New "Load.BT_2271_M2" bus1="UC3269.2.4" phases=1 conn=delta model=3 kv=0.22 kw = 8.695502806291103 pf=0.92 status=variable vmaxpu=1.5 vminpu=0.93 daily="RES_2_DO"
 
New "Load.BT_363_M1" bus1="UC8092.3.4" phases=1 conn=delta model=2 kv=0.22 kw = 375.7402302588464 pf=0.92 status=variable vmaxpu=1.5 vminpu=0.93 daily="RES_1_DO" 
New "Load.BT_363_M2" bus1="UC8092.3.4" phases=1 conn=delta model=3 kv=0.22 kw = 375.7402302588464 pf=0.92 status=variable vmaxpu=1.5 vminpu=0.93 daily="RES_1_DO"
 
New "Load.BT_1388_M1" bus1="UC16119.1.2.3.4" phases=3 conn=delta model=2 kv=0.38 kw = 0.0 pf=0.92 status=variable vmaxpu=1.5 vminpu=0.93 daily="RES_3_DO" 
New "Load.BT_1388_M2" bus1="UC16119.1.2.3.4" phases=3 conn=delta model=3 kv=0.38 kw = 0.0 pf=0.92 status=variable vmaxpu=1.5 vminpu=0.93 daily="RES_3_DO"
 
New "Load.BT_7601_M1" bus1="UC14406.1.4" phases=1 conn=delta model=2 kv=0.22 kw = 0.0 pf=0.92 status=variable vmaxpu=1.5 vminpu=0.93 daily="RES_3_DO" 
New "Load.BT_7601_M2" bus1="UC14406.1.4" phases=1 conn=delta model=3 kv=0.22 kw = 0.0 pf=0.92 status=variable vmaxpu=1.5 vminpu=0.93 daily="RES_3_DO"
 
New "Load.BT_984_M1" bus1="UC3585.1.2.3.4" phases=3 conn=delta model=2 kv=0.38 kw = 0.0 pf=0.92 status=variable vmaxpu=1.5 vminpu=0.93 daily="RES_3_DO" 
New "Load.BT_984_M2" bus1="UC3585.1.2.3.4" phases=3 conn=delta model=3 kv=0.38 kw = 0.0 pf=0.92 status=variable vmaxpu=1.5 vminpu=0.93 daily="RES_3_DO"
 
New "Load.BT_6510_M1" bus1="UC16127.1.4" phases=1 conn=delta model=2 kv=0.22 kw = 0.0 pf=0.92 status=variable vmaxpu=1.5 vminpu=0.93 daily="RES_7_DO" 
New "Load.BT_6510_M2" bus1="UC16127.1.4" phases=1 conn=delta model=3 kv=0.22 kw = 0.0 pf=0.92 status=variable vmaxpu=1.5 vminpu=0.93 daily="RES_7_DO"
 
New "Load.BT_2175_M1" bus1="UC20134.1.2.3.4" phases=3 conn=delta model=2 kv=0.38 kw = 0.0 pf=0.92 status=variable vmaxpu=1.5 vminpu=0.93 daily="RES_7_DO" 
New "Load.BT_2175_M2" bus1="UC20134.1.2.3.4" phases=3 conn=delta model=3 kv=0.38 kw = 0.0 pf=0.92 status=variable vmaxpu=1.5 vminpu=0.93 daily="RES_7_DO"
 
New "Load.BT_6508_M1" bus1="UC15833.1.2.4" phases=2 conn=delta model=2 kv=0.38 kw = 33.456321872363034 pf=0.92 status=variable vmaxpu=1.5 vminpu=0.93 daily="RES_1_DO" 
New "Load.BT_6508_M2" bus1="UC15833.1.2.4" phases=2 conn=delta model=3 kv=0.38 kw = 33.456321872363034 pf=0.92 status=variable vmaxpu=1.5 vminpu=0.93 daily="RES_1_DO"
 
New "Load.BT_2830_M1" bus1="UC3356.1.4" phases=1 conn=delta model=2 kv=0.22 kw = 307.24109915561894 pf=0.92 status=variable vmaxpu=1.5 vminpu=0.93 daily="RES_2_DO" 
New "Load.BT_2830_M2" bus1="UC3356.1.4" phases=1 conn=delta model=3 kv=0.22 kw = 307.24109915561894 pf=0.92 status=variable vmaxpu=1.5 vminpu=0.93 daily="RES_2_DO"
 
New "Load.BT_2830_M1" bus1="UC3356.2.4" phases=1 conn=delta model=2 kv=0.22 kw = 199.35111304767727 pf=0.92 status=variable vmaxpu=1.5 vminpu=0.93 daily="RES_12_DO" 
New "Load.BT_2830_M2" bus1="UC3356.2.4" phases=1 conn=delta model=3 kv=0.22 kw = 199.35111304767727 pf=0.92 status=variable vmaxpu=1.5 vminpu=0.93 daily="RES_12_DO"
 
New "Load.BT_7605_M1" bus1="UC11738.3.4" phases=1 conn=delta model=2 kv=0.22 kw = 236.25637231563013 pf=0.92 status=variable vmaxpu=1.5 vminpu=0.93 daily="RES_5_DO" 
New "Load.BT_7605_M2" bus1="UC11738.3.4" phases=1 conn=delta model=3 kv=0.22 kw = 236.25637231563013 pf=0.92 status=variable vmaxpu=1.5 vminpu=0.93 daily="RES_5_DO"
 
New "Load.BT_7725_M1" bus1="UC20089.3.4" phases=1 conn=delta model=2 kv=0.22 kw = 72.46252338575918 pf=0.92 status=variable vmaxpu=1.5 vminpu=0.93 daily="RES_2_DO" 
New "Load.BT_7725_M2" bus1="UC20089.3.4" phases=1 conn=delta model=3 kv=0.22 kw = 72.46252338575918 pf=0.92 status=variable vmaxpu=1.5 vminpu=0.93 daily="RES_2_DO"
 
New "Load.BT_2519_M1" bus1="UC15842.2.4" phases=1 conn=delta model=2 kv=0.22 kw = 409.2236184288268 pf=0.92 status=variable vmaxpu=1.5 vminpu=0.93 daily="RES_3_DO" 
New "Load.BT_2519_M2" bus1="UC15842.2.4" phases=1 conn=delta model=3 kv=0.22 kw = 409.2236184288268 pf=0.92 status=variable vmaxpu=1.5 vminpu=0.93 daily="RES_3_DO"
 
New "Load.BT_6668_M1" bus1="UC15843.2.3.4" phases=2 conn=delta model=2 kv=0.38 kw = 2.5735632209510024 pf=0.92 status=variable vmaxpu=1.5 vminpu=0.93 daily="RES_1_DO" 
New "Load.BT_6668_M2" bus1="UC15843.2.3.4" phases=2 conn=delta model=3 kv=0.38 kw = 2.5735632209510024 pf=0.92 status=variable vmaxpu=1.5 vminpu=0.93 daily="RES_1_DO"
 
New "Load.BT_7732_M1" bus1="UC20090.2.3.4" phases=2 conn=delta model=2 kv=0.38 kw = 19.935111304767727 pf=0.92 status=variable vmaxpu=1.5 vminpu=0.93 daily="RES_12_DO" 
New "Load.BT_7732_M2" bus1="UC20090.2.3.4" phases=2 conn=delta model=3 kv=0.38 kw = 19.935111304767727 pf=0.92 status=variable vmaxpu=1.5 vminpu=0.93 daily="RES_12_DO"
 
New "Load.BT_7733_M1" bus1="UC20091.2.3.4" phases=2 conn=delta model=2 kv=0.38 kw = 296.43488224508314 pf=0.92 status=variable vmaxpu=1.5 vminpu=0.93 daily="RES_5_DO" 
New "Load.BT_7733_M2" bus1="UC20091.2.3.4" phases=2 conn=delta model=3 kv=0.38 kw = 296.43488224508314 pf=0.92 status=variable vmaxpu=1.5 vminpu=0.93 daily="RES_5_DO"
 
New "Load.BT_2860_M1" bus1="UC2244.1.4" phases=1 conn=delta model=2 kv=0.22 kw = 578.8993069510598 pf=0.92 status=variable vmaxpu=1.5 vminpu=0.93 daily="RES_13_DO" 
New "Load.BT_2860_M2" bus1="UC2244.1.4" phases=1 conn=delta model=3 kv=0.22 kw = 578.8993069510598 pf=0.92 status=variable vmaxpu=1.5 vminpu=0.93 daily="RES_13_DO"
 
New "Load.BT_893_M1" bus1="UC9729.3.4" phases=1 conn=delta model=2 kv=0.22 kw = 363.9581272966108 pf=0.92 status=variable vmaxpu=1.5 vminpu=0.93 daily="COM_1_DO" 
New "Load.BT_893_M2" bus1="UC9729.3.4" phases=1 conn=delta model=3 kv=0.22 kw = 363.9581272966108 pf=0.92 status=variable vmaxpu=1.5 vminpu=0.93 daily="COM_1_DO"
 
New "Load.BT_893_M1" bus1="UC9729.2.4" phases=1 conn=delta model=2 kv=0.22 kw = 462.36673310814575 pf=0.92 status=variable vmaxpu=1.5 vminpu=0.93 daily="RES_10_DO" 
New "Load.BT_893_M2" bus1="UC9729.2.4" phases=1 conn=delta model=3 kv=0.22 kw = 462.36673310814575 pf=0.92 status=variable vmaxpu=1.5 vminpu=0.93 daily="RES_10_DO"
 
New "Load.BT_1939_M1" bus1="UC20043.2.3.4" phases=2 conn=delta model=2 kv=0.38 kw = 237.67707670529012 pf=0.92 status=variable vmaxpu=1.5 vminpu=0.93 daily="RES_2_DO" 
New "Load.BT_1939_M2" bus1="UC20043.2.3.4" phases=2 conn=delta model=3 kv=0.38 kw = 237.67707670529012 pf=0.92 status=variable vmaxpu=1.5 vminpu=0.93 daily="RES_2_DO"
 
New "Load.BT_8375_M1" bus1="UC4987.1.2.4" phases=2 conn=delta model=2 kv=0.38 kw = 113.04153648178433 pf=0.92 status=variable vmaxpu=1.5 vminpu=0.93 daily="RES_2_DO" 
New "Load.BT_8375_M2" bus1="UC4987.1.2.4" phases=2 conn=delta model=3 kv=0.38 kw = 113.04153648178433 pf=0.92 status=variable vmaxpu=1.5 vminpu=0.93 daily="RES_2_DO"
 
New "Load.BT_7746_M1" bus1="UC2758.3.4" phases=1 conn=delta model=2 kv=0.22 kw = 199.09347793589774 pf=0.92 status=variable vmaxpu=1.5 vminpu=0.93 daily="RES_7_DO" 
New "Load.BT_7746_M2" bus1="UC2758.3.4" phases=1 conn=delta model=3 kv=0.22 kw = 199.09347793589774 pf=0.92 status=variable vmaxpu=1.5 vminpu=0.93 daily="RES_7_DO"
 
New "Load.BT_830_M1" bus1="UC2488.1.4" phases=1 conn=delta model=2 kv=0.22 kw = 272.45908793045453 pf=0.92 status=variable vmaxpu=1.5 vminpu=0.93 daily="RES_2_DO" 
New "Load.BT_830_M2" bus1="UC2488.1.4" phases=1 conn=delta model=3 kv=0.22 kw = 272.45908793045453 pf=0.92 status=variable vmaxpu=1.5 vminpu=0.93 daily="RES_2_DO"
 
New "Load.BT_830_M1" bus1="UC2488.2.4" phases=1 conn=delta model=2 kv=0.22 kw = 397.0946281539603 pf=0.92 status=variable vmaxpu=1.5 vminpu=0.93 daily="RES_2_DO" 
New "Load.BT_830_M2" bus1="UC2488.2.4" phases=1 conn=delta model=3 kv=0.22 kw = 397.0946281539603 pf=0.92 status=variable vmaxpu=1.5 vminpu=0.93 daily="RES_2_DO"
 
New "Load.BT_830_M1" bus1="UC2488.3.4" phases=1 conn=delta model=2 kv=0.22 kw = 133.3310430297969 pf=0.92 status=variable vmaxpu=1.5 vminpu=0.93 daily="RES_2_DO" 
New "Load.BT_830_M2" bus1="UC2488.3.4" phases=1 conn=delta model=3 kv=0.22 kw = 133.3310430297969 pf=0.92 status=variable vmaxpu=1.5 vminpu=0.93 daily="RES_2_DO"
 
New "Load.BT_1284_M1" bus1="UC14865.2.3.4" phases=2 conn=delta model=2 kv=0.38 kw = 407.73062804665597 pf=0.92 status=variable vmaxpu=1.5 vminpu=0.93 daily="RES_11_DO" 
New "Load.BT_1284_M2" bus1="UC14865.2.3.4" phases=2 conn=delta model=3 kv=0.38 kw = 407.73062804665597 pf=0.92 status=variable vmaxpu=1.5 vminpu=0.93 daily="RES_11_DO"
 
New "Load.BT_7814_M1" bus1="UC15091.1.4" phases=1 conn=delta model=2 kv=0.22 kw = 173.91005612582202 pf=0.92 status=variable vmaxpu=1.5 vminpu=0.93 daily="RES_2_DO" 
New "Load.BT_7814_M2" bus1="UC15091.1.4" phases=1 conn=delta model=3 kv=0.22 kw = 173.91005612582202 pf=0.92 status=variable vmaxpu=1.5 vminpu=0.93 daily="RES_2_DO"
 
New "Load.BT_6653_M1" bus1="UC11683.2.4" phases=1 conn=delta model=2 kv=0.22 kw = 214.4890692218472 pf=0.92 status=variable vmaxpu=1.5 vminpu=0.93 daily="RES_2_DO" 
New "Load.BT_6653_M2" bus1="UC11683.2.4" phases=1 conn=delta model=3 kv=0.22 kw = 214.4890692218472 pf=0.92 status=variable vmaxpu=1.5 vminpu=0.93 daily="RES_2_DO"
 
New "Load.BT_6786_M1" bus1="UC9221.1.4" phases=1 conn=delta model=2 kv=0.22 kw = 252.16958138244198 pf=0.92 status=variable vmaxpu=1.5 vminpu=0.93 daily="RES_2_DO" 
New "Load.BT_6786_M2" bus1="UC9221.1.4" phases=1 conn=delta model=3 kv=0.22 kw = 252.16958138244198 pf=0.92 status=variable vmaxpu=1.5 vminpu=0.93 daily="RES_2_DO"
 
New "Load.BT_7897_M1" bus1="UC3241.3.4" phases=1 conn=delta model=2 kv=0.22 kw = 248.48546843543713 pf=0.92 status=variable vmaxpu=1.5 vminpu=0.93 daily="COM_1_DO" 
New "Load.BT_7897_M2" bus1="UC3241.3.4" phases=1 conn=delta model=3 kv=0.22 kw = 248.48546843543713 pf=0.92 status=variable vmaxpu=1.5 vminpu=0.93 daily="COM_1_DO"
 
New "Load.BT_6905_M1" bus1="UC15112.3.4" phases=1 conn=delta model=2 kv=0.22 kw = 355.1517244912384 pf=0.92 status=variable vmaxpu=1.5 vminpu=0.93 daily="RES_1_DO" 
New "Load.BT_6905_M2" bus1="UC15112.3.4" phases=1 conn=delta model=3 kv=0.22 kw = 355.1517244912384 pf=0.92 status=variable vmaxpu=1.5 vminpu=0.93 daily="RES_1_DO"
 
New "Load.BT_7836_M1" bus1="UC16108.3.4" phases=1 conn=delta model=2 kv=0.22 kw = 0.0 pf=0.92 status=variable vmaxpu=1.5 vminpu=0.93 daily="RES_7_DO" 
New "Load.BT_7836_M2" bus1="UC16108.3.4" phases=1 conn=delta model=3 kv=0.22 kw = 0.0 pf=0.92 status=variable vmaxpu=1.5 vminpu=0.93 daily="RES_7_DO"
 
New "Load.BT_2994_M1" bus1="UC20129.3.4" phases=1 conn=delta model=2 kv=0.22 kw = 0.0 pf=0.92 status=variable vmaxpu=1.5 vminpu=0.93 daily="RES_7_DO" 
New "Load.BT_2994_M2" bus1="UC20129.3.4" phases=1 conn=delta model=3 kv=0.22 kw = 0.0 pf=0.92 status=variable vmaxpu=1.5 vminpu=0.93 daily="RES_7_DO"
 
New "Load.BT_2600_M1" bus1="UC16111.2.4" phases=1 conn=delta model=2 kv=0.22 kw = 0.0 pf=0.92 status=variable vmaxpu=1.5 vminpu=0.93 daily="RES_7_DO" 
New "Load.BT_2600_M2" bus1="UC16111.2.4" phases=1 conn=delta model=3 kv=0.22 kw = 0.0 pf=0.92 status=variable vmaxpu=1.5 vminpu=0.93 daily="RES_7_DO"
 
New "Load.BT_8384_M1" bus1="UC3883.1.4" phases=1 conn=delta model=2 kv=0.22 kw = 0.0 pf=0.92 status=variable vmaxpu=1.5 vminpu=0.93 daily="COM_5_DO" 
New "Load.BT_8384_M2" bus1="UC3883.1.4" phases=1 conn=delta model=3 kv=0.22 kw = 0.0 pf=0.92 status=variable vmaxpu=1.5 vminpu=0.93 daily="COM_5_DO"
 
New "Load.BT_8384_M1" bus1="UC3883.2.4" phases=1 conn=delta model=2 kv=0.22 kw = 0.0 pf=0.92 status=variable vmaxpu=1.5 vminpu=0.93 daily="COM_5_DO" 
New "Load.BT_8384_M2" bus1="UC3883.2.4" phases=1 conn=delta model=3 kv=0.22 kw = 0.0 pf=0.92 status=variable vmaxpu=1.5 vminpu=0.93 daily="COM_5_DO"
 
New "Load.BT_2055_M1" bus1="UC4114.1.4" phases=1 conn=delta model=2 kv=0.22 kw = 0.0 pf=0.92 status=variable vmaxpu=1.5 vminpu=0.93 daily="RES_7_DO" 
New "Load.BT_2055_M2" bus1="UC4114.1.4" phases=1 conn=delta model=3 kv=0.22 kw = 0.0 pf=0.92 status=variable vmaxpu=1.5 vminpu=0.93 daily="RES_7_DO"
 
New "Load.BT_1547_M1" bus1="UC14453.3.4" phases=1 conn=delta model=2 kv=0.22 kw = 0.0 pf=0.92 status=variable vmaxpu=1.5 vminpu=0.93 daily="RES_7_DO" 
New "Load.BT_1547_M2" bus1="UC14453.3.4" phases=1 conn=delta model=3 kv=0.22 kw = 0.0 pf=0.92 status=variable vmaxpu=1.5 vminpu=0.93 daily="RES_7_DO"
 
New "Load.BT_7858_M1" bus1="UC16118.2.4" phases=1 conn=delta model=2 kv=0.22 kw = 0.0 pf=0.92 status=variable vmaxpu=1.5 vminpu=0.93 daily="RES_7_DO" 
New "Load.BT_7858_M2" bus1="UC16118.2.4" phases=1 conn=delta model=3 kv=0.22 kw = 0.0 pf=0.92 status=variable vmaxpu=1.5 vminpu=0.93 daily="RES_7_DO"
 
New "Load.BT_2598_M1" bus1="UC15828.2.4" phases=1 conn=delta model=2 kv=0.22 kw = 266.6620860595938 pf=0.92 status=variable vmaxpu=1.5 vminpu=0.93 daily="RES_2_DO" 
New "Load.BT_2598_M2" bus1="UC15828.2.4" phases=1 conn=delta model=3 kv=0.22 kw = 266.6620860595938 pf=0.92 status=variable vmaxpu=1.5 vminpu=0.93 daily="RES_2_DO"
 
New "Load.BT_1076_M1" bus1="UC5746.1.4" phases=1 conn=delta model=2 kv=0.22 kw = 95.83984914690659 pf=0.92 status=variable vmaxpu=1.5 vminpu=0.93 daily="RES_5_DO" 
New "Load.BT_1076_M2" bus1="UC5746.1.4" phases=1 conn=delta model=3 kv=0.22 kw = 95.83984914690659 pf=0.92 status=variable vmaxpu=1.5 vminpu=0.93 daily="RES_5_DO"
 
New "Load.BT_1224_M1" bus1="UC797.2.4" phases=1 conn=delta model=2 kv=0.22 kw = 523.6302214304343 pf=0.92 status=variable vmaxpu=1.5 vminpu=0.93 daily="RES_3_DO" 
New "Load.BT_1224_M2" bus1="UC797.2.4" phases=1 conn=delta model=3 kv=0.22 kw = 523.6302214304343 pf=0.92 status=variable vmaxpu=1.5 vminpu=0.93 daily="RES_3_DO"
 
New "Load.BT_2144_M1" bus1="UC20086.1.4" phases=1 conn=delta model=2 kv=0.22 kw = 739.1177385347437 pf=0.92 status=variable vmaxpu=1.5 vminpu=0.93 daily="RES_2_DO" 
New "Load.BT_2144_M2" bus1="UC20086.1.4" phases=1 conn=delta model=3 kv=0.22 kw = 739.1177385347437 pf=0.92 status=variable vmaxpu=1.5 vminpu=0.93 daily="RES_2_DO"
 
New "Load.BT_618_M1" bus1="UC15794.3.1.4" phases=2 conn=delta model=2 kv=0.38 kw = 547.8166767963395 pf=0.92 status=variable vmaxpu=1.5 vminpu=0.93 daily="RES_2_DO" 
New "Load.BT_618_M2" bus1="UC15794.3.1.4" phases=2 conn=delta model=3 kv=0.38 kw = 547.8166767963395 pf=0.92 status=variable vmaxpu=1.5 vminpu=0.93 daily="RES_2_DO"
 
New "Load.BT_7606_M1" bus1="UC11739.3.4" phases=1 conn=delta model=2 kv=0.22 kw = 139.12804490065764 pf=0.92 status=variable vmaxpu=1.5 vminpu=0.93 daily="RES_2_DO" 
New "Load.BT_7606_M2" bus1="UC11739.3.4" phases=1 conn=delta model=3 kv=0.22 kw = 139.12804490065764 pf=0.92 status=variable vmaxpu=1.5 vminpu=0.93 daily="RES_2_DO"
 
New "Load.BT_6647_M1" bus1="UC9436.1.4" phases=1 conn=delta model=2 kv=0.22 kw = 252.16958138244198 pf=0.92 status=variable vmaxpu=1.5 vminpu=0.93 daily="RES_2_DO" 
New "Load.BT_6647_M2" bus1="UC9436.1.4" phases=1 conn=delta model=3 kv=0.22 kw = 252.16958138244198 pf=0.92 status=variable vmaxpu=1.5 vminpu=0.93 daily="RES_2_DO"
 
New "Load.BT_1485_M1" bus1="UC15792.1.2.3.4" phases=3 conn=delta model=2 kv=0.38 kw = 1005.7798245943375 pf=0.92 status=variable vmaxpu=1.5 vminpu=0.93 daily="RES_2_DO" 
New "Load.BT_1485_M2" bus1="UC15792.1.2.3.4" phases=3 conn=delta model=3 kv=0.38 kw = 1005.7798245943375 pf=0.92 status=variable vmaxpu=1.5 vminpu=0.93 daily="RES_2_DO"
 
New "Load.BT_6503_M1" bus1="UC15476.1.4" phases=1 conn=delta model=2 kv=0.22 kw = 408.6886318956818 pf=0.92 status=variable vmaxpu=1.5 vminpu=0.93 daily="RES_2_DO" 
New "Load.BT_6503_M2" bus1="UC15476.1.4" phases=1 conn=delta model=3 kv=0.22 kw = 408.6886318956818 pf=0.92 status=variable vmaxpu=1.5 vminpu=0.93 daily="RES_2_DO"
 
New "Load.BT_7350_M1" bus1="UC20128.1.4" phases=1 conn=delta model=2 kv=0.22 kw = 0.0 pf=0.92 status=variable vmaxpu=1.5 vminpu=0.93 daily="RES_3_DO" 
New "Load.BT_7350_M2" bus1="UC20128.1.4" phases=1 conn=delta model=3 kv=0.22 kw = 0.0 pf=0.92 status=variable vmaxpu=1.5 vminpu=0.93 daily="RES_3_DO"
 
New "Load.BT_7853_M1" bus1="UC16098.2.3.4" phases=2 conn=delta model=2 kv=0.38 kw = 0.0 pf=0.92 status=variable vmaxpu=1.5 vminpu=0.93 daily="RES_7_DO" 
New "Load.BT_7853_M2" bus1="UC16098.2.3.4" phases=2 conn=delta model=3 kv=0.38 kw = 0.0 pf=0.92 status=variable vmaxpu=1.5 vminpu=0.93 daily="RES_7_DO"
 
New "Load.BT_2823_M1" bus1="UC4516.3.1.4" phases=2 conn=delta model=2 kv=0.38 kw = 0.0 pf=0.92 status=variable vmaxpu=1.5 vminpu=0.93 daily="RES_3_DO" 
New "Load.BT_2823_M2" bus1="UC4516.3.1.4" phases=2 conn=delta model=3 kv=0.38 kw = 0.0 pf=0.92 status=variable vmaxpu=1.5 vminpu=0.93 daily="RES_3_DO"
 
New "Load.BT_1088_M1" bus1="UC5634.3.4" phases=1 conn=delta model=2 kv=0.22 kw = 0.0 pf=0.92 status=variable vmaxpu=1.5 vminpu=0.93 daily="RES_3_DO" 
New "Load.BT_1088_M2" bus1="UC5634.3.4" phases=1 conn=delta model=3 kv=0.22 kw = 0.0 pf=0.92 status=variable vmaxpu=1.5 vminpu=0.93 daily="RES_3_DO"
 
New "Load.BT_6907_M1" bus1="UC10830.1.4" phases=1 conn=delta model=2 kv=0.22 kw = 0.0 pf=0.92 status=variable vmaxpu=1.5 vminpu=0.93 daily="RES_7_DO" 
New "Load.BT_6907_M2" bus1="UC10830.1.4" phases=1 conn=delta model=3 kv=0.22 kw = 0.0 pf=0.92 status=variable vmaxpu=1.5 vminpu=0.93 daily="RES_7_DO"
 
New "Load.BT_2519_M1" bus1="UC15768.1.4" phases=1 conn=delta model=2 kv=0.22 kw = 0.0 pf=0.92 status=variable vmaxpu=1.5 vminpu=0.93 daily="RES_2_DO" 
New "Load.BT_2519_M2" bus1="UC15768.1.4" phases=1 conn=delta model=3 kv=0.22 kw = 0.0 pf=0.92 status=variable vmaxpu=1.5 vminpu=0.93 daily="RES_2_DO"
 
New "Load.BT_7950_M1" bus1="UC15770.1.2.4" phases=2 conn=delta model=2 kv=0.38 kw = 698.5387254387185 pf=0.92 status=variable vmaxpu=1.5 vminpu=0.93 daily="RES_2_DO" 
New "Load.BT_7950_M2" bus1="UC15770.1.2.4" phases=2 conn=delta model=3 kv=0.38 kw = 698.5387254387185 pf=0.92 status=variable vmaxpu=1.5 vminpu=0.93 daily="RES_2_DO"
 
New "Load.BT_7736_M1" bus1="UC20080.1.2.4" phases=2 conn=delta model=2 kv=0.38 kw = 292.7485944784671 pf=0.92 status=variable vmaxpu=1.5 vminpu=0.93 daily="RES_2_DO" 
New "Load.BT_7736_M2" bus1="UC20080.1.2.4" phases=2 conn=delta model=3 kv=0.38 kw = 292.7485944784671 pf=0.92 status=variable vmaxpu=1.5 vminpu=0.93 daily="RES_2_DO"
 
New "Load.BT_7736_M1" bus1="UC20078.2.3.4" phases=2 conn=delta model=2 kv=0.38 kw = 11.594003741721469 pf=0.92 status=variable vmaxpu=1.5 vminpu=0.93 daily="RES_2_DO" 
New "Load.BT_7736_M2" bus1="UC20078.2.3.4" phases=2 conn=delta model=3 kv=0.38 kw = 11.594003741721469 pf=0.92 status=variable vmaxpu=1.5 vminpu=0.93 daily="RES_2_DO"
 
New "Load.BT_7736_M1" bus1="UC20079.2.3.4" phases=2 conn=delta model=2 kv=0.38 kw = 72.46252338575918 pf=0.92 status=variable vmaxpu=1.5 vminpu=0.93 daily="RES_2_DO" 
New "Load.BT_7736_M2" bus1="UC20079.2.3.4" phases=2 conn=delta model=3 kv=0.38 kw = 72.46252338575918 pf=0.92 status=variable vmaxpu=1.5 vminpu=0.93 daily="RES_2_DO"
 
New "Load.BT_2553_M1" bus1="UC20081.3.4" phases=1 conn=delta model=2 kv=0.22 kw = 0.0 pf=0.92 status=variable vmaxpu=1.5 vminpu=0.93 daily="RES_6_DO" 
New "Load.BT_2553_M2" bus1="UC20081.3.4" phases=1 conn=delta model=3 kv=0.22 kw = 0.0 pf=0.92 status=variable vmaxpu=1.5 vminpu=0.93 daily="RES_6_DO"
 
New "Load.BT_1328_M1" bus1="UC960.3.4" phases=1 conn=delta model=2 kv=0.22 kw = 252.16958138244198 pf=0.92 status=variable vmaxpu=1.5 vminpu=0.93 daily="RES_2_DO" 
New "Load.BT_1328_M2" bus1="UC960.3.4" phases=1 conn=delta model=3 kv=0.22 kw = 252.16958138244198 pf=0.92 status=variable vmaxpu=1.5 vminpu=0.93 daily="RES_2_DO"
 
New "Load.BT_1280_M1" bus1="UC7780.1.4" phases=1 conn=delta model=2 kv=0.22 kw = 657.9597123426934 pf=0.92 status=variable vmaxpu=1.5 vminpu=0.93 daily="RES_2_DO" 
New "Load.BT_1280_M2" bus1="UC7780.1.4" phases=1 conn=delta model=3 kv=0.22 kw = 657.9597123426934 pf=0.92 status=variable vmaxpu=1.5 vminpu=0.93 daily="RES_2_DO"
 
New "Load.BT_7756_M1" bus1="UC15778.1.2.3.4" phases=3 conn=delta model=2 kv=0.38 kw = 69.56402245032882 pf=0.92 status=variable vmaxpu=1.5 vminpu=0.93 daily="RES_2_DO" 
New "Load.BT_7756_M2" bus1="UC15778.1.2.3.4" phases=3 conn=delta model=3 kv=0.38 kw = 69.56402245032882 pf=0.92 status=variable vmaxpu=1.5 vminpu=0.93 daily="RES_2_DO"
 
New "Load.BT_7345_M1" bus1="UC4494.3.4" phases=1 conn=delta model=2 kv=0.22 kw = 333.3276075744923 pf=0.92 status=variable vmaxpu=1.5 vminpu=0.93 daily="RES_2_DO" 
New "Load.BT_7345_M2" bus1="UC4494.3.4" phases=1 conn=delta model=3 kv=0.22 kw = 333.3276075744923 pf=0.92 status=variable vmaxpu=1.5 vminpu=0.93 daily="RES_2_DO"
 
New "Load.BT_6677_M1" bus1="UC15444.3.4" phases=1 conn=delta model=2 kv=0.22 kw = 162.31605238410057 pf=0.92 status=variable vmaxpu=1.5 vminpu=0.93 daily="RES_2_DO" 
New "Load.BT_6677_M2" bus1="UC15444.3.4" phases=1 conn=delta model=3 kv=0.22 kw = 162.31605238410057 pf=0.92 status=variable vmaxpu=1.5 vminpu=0.93 daily="RES_2_DO"
 
New "Load.BT_2035_M1" bus1="UC20026.1.4" phases=1 conn=delta model=2 kv=0.22 kw = 518.9298902411984 pf=0.92 status=variable vmaxpu=1.5 vminpu=0.93 daily="RES_11_DO" 
New "Load.BT_2035_M2" bus1="UC20026.1.4" phases=1 conn=delta model=3 kv=0.22 kw = 518.9298902411984 pf=0.92 status=variable vmaxpu=1.5 vminpu=0.93 daily="RES_11_DO"
 
New "Load.BT_1901_M1" bus1="UC20027.2.3.4" phases=2 conn=delta model=2 kv=0.38 kw = 475.35415341058024 pf=0.92 status=variable vmaxpu=1.5 vminpu=0.93 daily="RES_2_DO" 
New "Load.BT_1901_M2" bus1="UC20027.2.3.4" phases=2 conn=delta model=3 kv=0.38 kw = 475.35415341058024 pf=0.92 status=variable vmaxpu=1.5 vminpu=0.93 daily="RES_2_DO"
 
New "Load.BT_7814_M1" bus1="UC16067.3.4" phases=1 conn=delta model=2 kv=0.22 kw = 0.0 pf=0.92 status=variable vmaxpu=1.5 vminpu=0.93 daily="RES_7_DO" 
New "Load.BT_7814_M2" bus1="UC16067.3.4" phases=1 conn=delta model=3 kv=0.22 kw = 0.0 pf=0.92 status=variable vmaxpu=1.5 vminpu=0.93 daily="RES_7_DO"
 
New "Load.BT_1799_M1" bus1="UC6060.1.4" phases=1 conn=delta model=2 kv=0.22 kw = 0.0 pf=0.92 status=variable vmaxpu=1.5 vminpu=0.93 daily="RES_3_DO" 
New "Load.BT_1799_M2" bus1="UC6060.1.4" phases=1 conn=delta model=3 kv=0.22 kw = 0.0 pf=0.92 status=variable vmaxpu=1.5 vminpu=0.93 daily="RES_3_DO"
 
New "Load.BT_2049_M1" bus1="UC4838.1.2.4" phases=2 conn=delta model=2 kv=0.38 kw = 0.0 pf=0.92 status=variable vmaxpu=1.5 vminpu=0.93 daily="RES_3_DO" 
New "Load.BT_2049_M2" bus1="UC4838.1.2.4" phases=2 conn=delta model=3 kv=0.38 kw = 0.0 pf=0.92 status=variable vmaxpu=1.5 vminpu=0.93 daily="RES_3_DO"
 
New "Load.BT_6674_M1" bus1="UC14778.2.4" phases=1 conn=delta model=2 kv=0.22 kw = 0.0 pf=0.92 status=variable vmaxpu=1.5 vminpu=0.93 daily="RES_3_DO" 
New "Load.BT_6674_M2" bus1="UC14778.2.4" phases=1 conn=delta model=3 kv=0.22 kw = 0.0 pf=0.92 status=variable vmaxpu=1.5 vminpu=0.93 daily="RES_3_DO"
 
New "Load.BT_3082_M1" bus1="UC3698.2.4" phases=1 conn=delta model=2 kv=0.22 kw = 0.0 pf=0.92 status=variable vmaxpu=1.5 vminpu=0.93 daily="RES_3_DO" 
New "Load.BT_3082_M2" bus1="UC3698.2.4" phases=1 conn=delta model=3 kv=0.22 kw = 0.0 pf=0.92 status=variable vmaxpu=1.5 vminpu=0.93 daily="RES_3_DO"
 
New "Load.BT_2055_M1" bus1="UC4114.3.4" phases=1 conn=delta model=2 kv=0.22 kw = 0.0 pf=0.92 status=variable vmaxpu=1.5 vminpu=0.93 daily="RES_3_DO" 
New "Load.BT_2055_M2" bus1="UC4114.3.4" phases=1 conn=delta model=3 kv=0.22 kw = 0.0 pf=0.92 status=variable vmaxpu=1.5 vminpu=0.93 daily="RES_3_DO"
 
New "Load.BT_1061_M1" bus1="UC16077.3.4" phases=1 conn=delta model=2 kv=0.22 kw = 0.0 pf=0.92 status=variable vmaxpu=1.5 vminpu=0.93 daily="RES_3_DO" 
New "Load.BT_1061_M2" bus1="UC16077.3.4" phases=1 conn=delta model=3 kv=0.22 kw = 0.0 pf=0.92 status=variable vmaxpu=1.5 vminpu=0.93 daily="RES_3_DO"
 
New "Load.BT_7970_M1" bus1="UC15759.2.3.4" phases=2 conn=delta model=2 kv=0.38 kw = 197.09806360926498 pf=0.92 status=variable vmaxpu=1.5 vminpu=0.93 daily="RES_2_DO" 
New "Load.BT_7970_M2" bus1="UC15759.2.3.4" phases=2 conn=delta model=3 kv=0.38 kw = 197.09806360926498 pf=0.92 status=variable vmaxpu=1.5 vminpu=0.93 daily="RES_2_DO"
 
New "Load.BT_7948_M1" bus1="UC15766.1.2.3.4" phases=3 conn=delta model=2 kv=0.38 kw = 527.5271702483269 pf=0.92 status=variable vmaxpu=1.5 vminpu=0.93 daily="RES_2_DO" 
New "Load.BT_7948_M2" bus1="UC15766.1.2.3.4" phases=3 conn=delta model=3 kv=0.38 kw = 527.5271702483269 pf=0.92 status=variable vmaxpu=1.5 vminpu=0.93 daily="RES_2_DO"
 
New "Load.BT_8518_M1" bus1="UC20077.3.4" phases=1 conn=delta model=2 kv=0.22 kw = 133.3310430297969 pf=0.92 status=variable vmaxpu=1.5 vminpu=0.93 daily="RES_2_DO" 
New "Load.BT_8518_M2" bus1="UC20077.3.4" phases=1 conn=delta model=3 kv=0.22 kw = 133.3310430297969 pf=0.92 status=variable vmaxpu=1.5 vminpu=0.93 daily="RES_2_DO"
 
New "Load.BT_7756_M1" bus1="UC15767.3.4" phases=1 conn=delta model=2 kv=0.22 kw = 591.2941908277949 pf=0.92 status=variable vmaxpu=1.5 vminpu=0.93 daily="RES_2_DO" 
New "Load.BT_7756_M2" bus1="UC15767.3.4" phases=1 conn=delta model=3 kv=0.22 kw = 591.2941908277949 pf=0.92 status=variable vmaxpu=1.5 vminpu=0.93 daily="RES_2_DO"
 
New "Load.BT_7790_M1" bus1="UC15434.3.4" phases=1 conn=delta model=2 kv=0.22 kw = 495.6436599585928 pf=0.92 status=variable vmaxpu=1.5 vminpu=0.93 daily="RES_2_DO" 
New "Load.BT_7790_M2" bus1="UC15434.3.4" phases=1 conn=delta model=3 kv=0.22 kw = 495.6436599585928 pf=0.92 status=variable vmaxpu=1.5 vminpu=0.93 daily="RES_2_DO"
 
New "Load.BT_2544_M1" bus1="UC4853.1.2.4" phases=2 conn=delta model=2 kv=0.38 kw = 252.16958138244198 pf=0.92 status=variable vmaxpu=1.5 vminpu=0.93 daily="RES_2_DO" 
New "Load.BT_2544_M2" bus1="UC4853.1.2.4" phases=2 conn=delta model=3 kv=0.38 kw = 252.16958138244198 pf=0.92 status=variable vmaxpu=1.5 vminpu=0.93 daily="RES_2_DO"
 
New "Load.BT_7743_M1" bus1="UC10804.1.4" phases=1 conn=delta model=2 kv=0.22 kw = 501.8448280854455 pf=0.92 status=variable vmaxpu=1.5 vminpu=0.93 daily="RES_1_DO" 
New "Load.BT_7743_M2" bus1="UC10804.1.4" phases=1 conn=delta model=3 kv=0.22 kw = 501.8448280854455 pf=0.92 status=variable vmaxpu=1.5 vminpu=0.93 daily="RES_1_DO"
 
New "Load.BT_7817_M1" bus1="UC15439.2.4" phases=1 conn=delta model=2 kv=0.22 kw = 834.0057275072118 pf=0.92 status=variable vmaxpu=1.5 vminpu=0.93 daily="RES_8_DO" 
New "Load.BT_7817_M2" bus1="UC15439.2.4" phases=1 conn=delta model=3 kv=0.22 kw = 834.0057275072118 pf=0.92 status=variable vmaxpu=1.5 vminpu=0.93 daily="RES_8_DO"
 
New "Load.BT_2147_M1" bus1="UC20024.3.1.4" phases=2 conn=delta model=2 kv=0.38 kw = 498.5421608940232 pf=0.92 status=variable vmaxpu=1.5 vminpu=0.93 daily="RES_2_DO" 
New "Load.BT_2147_M2" bus1="UC20024.3.1.4" phases=2 conn=delta model=3 kv=0.38 kw = 498.5421608940232 pf=0.92 status=variable vmaxpu=1.5 vminpu=0.93 daily="RES_2_DO"
 
New "Load.BT_7463_M1" bus1="UC4971.2.3.4" phases=2 conn=delta model=2 kv=0.38 kw = 535.3011499578085 pf=0.92 status=variable vmaxpu=1.5 vminpu=0.93 daily="RES_1_DO" 
New "Load.BT_7463_M2" bus1="UC4971.2.3.4" phases=2 conn=delta model=3 kv=0.38 kw = 535.3011499578085 pf=0.92 status=variable vmaxpu=1.5 vminpu=0.93 daily="RES_1_DO"
 
New "Load.BT_1561_M1" bus1="UC14577.2.4" phases=1 conn=delta model=2 kv=0.22 kw = 449.2676449917069 pf=0.92 status=variable vmaxpu=1.5 vminpu=0.93 daily="RES_2_DO" 
New "Load.BT_1561_M2" bus1="UC14577.2.4" phases=1 conn=delta model=3 kv=0.22 kw = 449.2676449917069 pf=0.92 status=variable vmaxpu=1.5 vminpu=0.93 daily="RES_2_DO"
 
New "Load.BT_2266_M1" bus1="UC4027.3.4" phases=1 conn=delta model=2 kv=0.22 kw = 118.39601731335534 pf=0.92 status=variable vmaxpu=1.5 vminpu=0.93 daily="COM_1_DO" 
New "Load.BT_2266_M2" bus1="UC4027.3.4" phases=1 conn=delta model=3 kv=0.22 kw = 118.39601731335534 pf=0.92 status=variable vmaxpu=1.5 vminpu=0.93 daily="COM_1_DO"
 
New "Load.BT_8289_M1" bus1="UC20019.1.4" phases=1 conn=delta model=2 kv=0.22 kw = 295.64709541389743 pf=0.92 status=variable vmaxpu=1.5 vminpu=0.93 daily="RES_2_DO" 
New "Load.BT_8289_M2" bus1="UC20019.1.4" phases=1 conn=delta model=3 kv=0.22 kw = 295.64709541389743 pf=0.92 status=variable vmaxpu=1.5 vminpu=0.93 daily="RES_2_DO"
 
New "Load.BT_3070_M1" bus1="UC20020.1.2.4" phases=2 conn=delta model=2 kv=0.38 kw = 208.69206735098646 pf=0.92 status=variable vmaxpu=1.5 vminpu=0.93 daily="RES_2_DO" 
New "Load.BT_3070_M2" bus1="UC20020.1.2.4" phases=2 conn=delta model=3 kv=0.38 kw = 208.69206735098646 pf=0.92 status=variable vmaxpu=1.5 vminpu=0.93 daily="RES_2_DO"
 
New "Load.BT_8375_M1" bus1="UC4987.3.1.4" phases=2 conn=delta model=2 kv=0.38 kw = 223.1845720281383 pf=0.92 status=variable vmaxpu=1.5 vminpu=0.93 daily="RES_2_DO" 
New "Load.BT_8375_M2" bus1="UC4987.3.1.4" phases=2 conn=delta model=3 kv=0.38 kw = 223.1845720281383 pf=0.92 status=variable vmaxpu=1.5 vminpu=0.93 daily="RES_2_DO"
 
New "Load.BT_7746_M1" bus1="UC14588.1.4" phases=1 conn=delta model=2 kv=0.22 kw = 260.8650841887331 pf=0.92 status=variable vmaxpu=1.5 vminpu=0.93 daily="RES_2_DO" 
New "Load.BT_7746_M2" bus1="UC14588.1.4" phases=1 conn=delta model=3 kv=0.22 kw = 260.8650841887331 pf=0.92 status=variable vmaxpu=1.5 vminpu=0.93 daily="RES_2_DO"
 
New "Load.BT_7000_M1" bus1="UC15426.1.4" phases=1 conn=delta model=2 kv=0.22 kw = 515.9331665066054 pf=0.92 status=variable vmaxpu=1.5 vminpu=0.93 daily="RES_2_DO" 
New "Load.BT_7000_M2" bus1="UC15426.1.4" phases=1 conn=delta model=3 kv=0.22 kw = 515.9331665066054 pf=0.92 status=variable vmaxpu=1.5 vminpu=0.93 daily="RES_2_DO"
 
New "Load.BT_874_M1" bus1="UC12653.1.4" phases=1 conn=delta model=2 kv=0.22 kw = 319.1069054802302 pf=0.92 status=variable vmaxpu=1.5 vminpu=0.93 daily="COM_5_DO" 
New "Load.BT_874_M2" bus1="UC12653.1.4" phases=1 conn=delta model=3 kv=0.22 kw = 319.1069054802302 pf=0.92 status=variable vmaxpu=1.5 vminpu=0.93 daily="COM_5_DO"
 
New "Load.BT_7960_M1" bus1="UC15423.1.2.3.4" phases=3 conn=delta model=2 kv=0.38 kw = 415.1169002097891 pf=0.92 status=variable vmaxpu=1.5 vminpu=0.93 daily="COM_1_DO" 
New "Load.BT_7960_M2" bus1="UC15423.1.2.3.4" phases=3 conn=delta model=3 kv=0.38 kw = 415.1169002097891 pf=0.92 status=variable vmaxpu=1.5 vminpu=0.93 daily="COM_1_DO"
 
New "Load.BT_61_M1" bus1="UC16056.1.4" phases=1 conn=delta model=2 kv=0.22 kw = 0.0 pf=0.92 status=variable vmaxpu=1.5 vminpu=0.93 daily="RES_7_DO" 
New "Load.BT_61_M2" bus1="UC16056.1.4" phases=1 conn=delta model=3 kv=0.22 kw = 0.0 pf=0.92 status=variable vmaxpu=1.5 vminpu=0.93 daily="RES_7_DO"
 
New "Load.BT_8301_M1" bus1="UC20120.1.2.4" phases=2 conn=delta model=2 kv=0.38 kw = 0.0 pf=0.92 status=variable vmaxpu=1.5 vminpu=0.93 daily="RES_3_DO" 
New "Load.BT_8301_M2" bus1="UC20120.1.2.4" phases=2 conn=delta model=3 kv=0.38 kw = 0.0 pf=0.92 status=variable vmaxpu=1.5 vminpu=0.93 daily="RES_3_DO"
 
New "Load.BT_7633_M1" bus1="UC20123.2.4" phases=1 conn=delta model=2 kv=0.22 kw = 0.0 pf=0.92 status=variable vmaxpu=1.5 vminpu=0.93 daily="RES_3_DO" 
New "Load.BT_7633_M2" bus1="UC20123.2.4" phases=1 conn=delta model=3 kv=0.22 kw = 0.0 pf=0.92 status=variable vmaxpu=1.5 vminpu=0.93 daily="RES_3_DO"
 
New "Load.BT_2683_M1" bus1="UC20122.3.4" phases=1 conn=delta model=2 kv=0.22 kw = 0.0 pf=0.92 status=variable vmaxpu=1.5 vminpu=0.93 daily="RES_7_DO" 
New "Load.BT_2683_M2" bus1="UC20122.3.4" phases=1 conn=delta model=3 kv=0.22 kw = 0.0 pf=0.92 status=variable vmaxpu=1.5 vminpu=0.93 daily="RES_7_DO"
 
New "Load.BT_8675_M1" bus1="UC16051.1.4" phases=1 conn=delta model=2 kv=0.22 kw = 0.0 pf=0.92 status=variable vmaxpu=1.5 vminpu=0.93 daily="COM_5_DO" 
New "Load.BT_8675_M2" bus1="UC16051.1.4" phases=1 conn=delta model=3 kv=0.22 kw = 0.0 pf=0.92 status=variable vmaxpu=1.5 vminpu=0.93 daily="COM_5_DO"
 
New "Load.BT_6508_M1" bus1="UC16063.2.4" phases=1 conn=delta model=2 kv=0.22 kw = 0.0 pf=0.92 status=variable vmaxpu=1.5 vminpu=0.93 daily="RES_3_DO" 
New "Load.BT_6508_M2" bus1="UC16063.2.4" phases=1 conn=delta model=3 kv=0.22 kw = 0.0 pf=0.92 status=variable vmaxpu=1.5 vminpu=0.93 daily="RES_3_DO"
 
New "Load.BT_7819_M1" bus1="UC16066.2.4" phases=1 conn=delta model=2 kv=0.22 kw = 0.0 pf=0.92 status=variable vmaxpu=1.5 vminpu=0.93 daily="RES_7_DO" 
New "Load.BT_7819_M2" bus1="UC16066.2.4" phases=1 conn=delta model=3 kv=0.22 kw = 0.0 pf=0.92 status=variable vmaxpu=1.5 vminpu=0.93 daily="RES_7_DO"
 
New "Load.BT_835_M1" bus1="UC16065.3.4" phases=1 conn=delta model=2 kv=0.22 kw = 0.0 pf=0.92 status=variable vmaxpu=1.5 vminpu=0.93 daily="RES_3_DO" 
New "Load.BT_835_M2" bus1="UC16065.3.4" phases=1 conn=delta model=3 kv=0.22 kw = 0.0 pf=0.92 status=variable vmaxpu=1.5 vminpu=0.93 daily="RES_3_DO"
 
New "Load.BT_8015_M1" bus1="UC20075.1.2.3.4" phases=3 conn=delta model=2 kv=0.38 kw = 113.04153648178433 pf=0.92 status=variable vmaxpu=1.5 vminpu=0.93 daily="RES_2_DO" 
New "Load.BT_8015_M2" bus1="UC20075.1.2.3.4" phases=3 conn=delta model=3 kv=0.38 kw = 113.04153648178433 pf=0.92 status=variable vmaxpu=1.5 vminpu=0.93 daily="RES_2_DO"
 
New "Load.BT_71_M1" bus1="UC2604.2.4" phases=1 conn=delta model=2 kv=0.22 kw = 159.4175514486702 pf=0.92 status=variable vmaxpu=1.5 vminpu=0.93 daily="RES_2_DO" 
New "Load.BT_71_M2" bus1="UC2604.2.4" phases=1 conn=delta model=3 kv=0.22 kw = 159.4175514486702 pf=0.92 status=variable vmaxpu=1.5 vminpu=0.93 daily="RES_2_DO"
 
New "Load.BT_8314_M1" bus1="UC15743.1.2.3.4" phases=3 conn=delta model=2 kv=0.38 kw = 207.55845010489455 pf=0.92 status=variable vmaxpu=1.5 vminpu=0.93 daily="COM_1_DO" 
New "Load.BT_8314_M2" bus1="UC15743.1.2.3.4" phases=3 conn=delta model=3 kv=0.38 kw = 207.55845010489455 pf=0.92 status=variable vmaxpu=1.5 vminpu=0.93 daily="COM_1_DO"
 
New "Load.BT_814_M1" bus1="UC20076.1.4" phases=1 conn=delta model=2 kv=0.22 kw = 173.91005612582202 pf=0.92 status=variable vmaxpu=1.5 vminpu=0.93 daily="RES_2_DO" 
New "Load.BT_814_M2" bus1="UC20076.1.4" phases=1 conn=delta model=3 kv=0.22 kw = 173.91005612582202 pf=0.92 status=variable vmaxpu=1.5 vminpu=0.93 daily="RES_2_DO"
 
New "Load.BT_8070_M1" bus1="UC20074.2.3.4" phases=2 conn=delta model=2 kv=0.38 kw = 443.4706431208462 pf=0.92 status=variable vmaxpu=1.5 vminpu=0.93 daily="RES_2_DO" 
New "Load.BT_8070_M2" bus1="UC20074.2.3.4" phases=2 conn=delta model=3 kv=0.38 kw = 443.4706431208462 pf=0.92 status=variable vmaxpu=1.5 vminpu=0.93 daily="RES_2_DO"
 
New "Load.BT_2848_M1" bus1="UC6699.2.4" phases=1 conn=delta model=2 kv=0.22 kw = 831.8697684685155 pf=0.92 status=variable vmaxpu=1.5 vminpu=0.93 daily="RES_2_DO" 
New "Load.BT_2848_M2" bus1="UC6699.2.4" phases=1 conn=delta model=3 kv=0.22 kw = 831.8697684685155 pf=0.92 status=variable vmaxpu=1.5 vminpu=0.93 daily="RES_2_DO"
 
New "Load.BT_1090_M1" bus1="UC15410.1.2.3.4" phases=3 conn=delta model=2 kv=0.38 kw = 235.33035540061988 pf=0.92 status=variable vmaxpu=1.5 vminpu=0.93 daily="COM_1_DO" 
New "Load.BT_1090_M2" bus1="UC15410.1.2.3.4" phases=3 conn=delta model=3 kv=0.38 kw = 235.33035540061988 pf=0.92 status=variable vmaxpu=1.5 vminpu=0.93 daily="COM_1_DO"
 
New "Load.BT_1090_M1" bus1="UC15410.3.4" phases=1 conn=delta model=2 kv=0.22 kw = 3224.582489542969 pf=0.92 status=variable vmaxpu=1.5 vminpu=0.93 daily="RES_8_DO" 
New "Load.BT_1090_M2" bus1="UC15410.3.4" phases=1 conn=delta model=3 kv=0.22 kw = 3224.582489542969 pf=0.92 status=variable vmaxpu=1.5 vminpu=0.93 daily="RES_8_DO"
 
New "Load.BT_7839_M1" bus1="UC15414.1.2.3.4" phases=3 conn=delta model=2 kv=0.38 kw = 13386.058352539609 pf=0.92 status=variable vmaxpu=1.5 vminpu=0.93 daily="COM_1_DO" 
New "Load.BT_7839_M2" bus1="UC15414.1.2.3.4" phases=3 conn=delta model=3 kv=0.38 kw = 13386.058352539609 pf=0.92 status=variable vmaxpu=1.5 vminpu=0.93 daily="COM_1_DO"
 
New "Load.BT_1339_M1" bus1="UC15420.2.3.4" phases=2 conn=delta model=2 kv=0.38 kw = 281.1545907367456 pf=0.92 status=variable vmaxpu=1.5 vminpu=0.93 daily="RES_2_DO" 
New "Load.BT_1339_M2" bus1="UC15420.2.3.4" phases=2 conn=delta model=3 kv=0.38 kw = 281.1545907367456 pf=0.92 status=variable vmaxpu=1.5 vminpu=0.93 daily="RES_2_DO"
 
New "Load.BT_7850_M1" bus1="UC13997.1.4" phases=1 conn=delta model=2 kv=0.22 kw = 564.9834582262747 pf=0.92 status=variable vmaxpu=1.5 vminpu=0.93 daily="RES_13_DO" 
New "Load.BT_7850_M2" bus1="UC13997.1.4" phases=1 conn=delta model=3 kv=0.22 kw = 564.9834582262747 pf=0.92 status=variable vmaxpu=1.5 vminpu=0.93 daily="RES_13_DO"
 
New "Load.BT_2647_M1" bus1="UC4659.1.2.3.4" phases=3 conn=delta model=2 kv=0.38 kw = 0.0 pf=0.92 status=variable vmaxpu=1.5 vminpu=0.93 daily="RES_3_DO" 
New "Load.BT_2647_M2" bus1="UC4659.1.2.3.4" phases=3 conn=delta model=3 kv=0.38 kw = 0.0 pf=0.92 status=variable vmaxpu=1.5 vminpu=0.93 daily="RES_3_DO"
 
New "Load.BT_3000_M1" bus1="UC3833.2.4" phases=1 conn=delta model=2 kv=0.22 kw = 0.0 pf=0.92 status=variable vmaxpu=1.5 vminpu=0.93 daily="COM_5_DO" 
New "Load.BT_3000_M2" bus1="UC3833.2.4" phases=1 conn=delta model=3 kv=0.22 kw = 0.0 pf=0.92 status=variable vmaxpu=1.5 vminpu=0.93 daily="COM_5_DO"
 
New "Load.BT_6968_M1" bus1="UC16049.1.4" phases=1 conn=delta model=2 kv=0.22 kw = 0.0 pf=0.92 status=variable vmaxpu=1.5 vminpu=0.93 daily="RES_7_DO" 
New "Load.BT_6968_M2" bus1="UC16049.1.4" phases=1 conn=delta model=3 kv=0.22 kw = 0.0 pf=0.92 status=variable vmaxpu=1.5 vminpu=0.93 daily="RES_7_DO"
 
New "Load.BT_8565_M1" bus1="UC20121.1.2.3.4" phases=3 conn=delta model=2 kv=0.38 kw = 0.0 pf=0.92 status=variable vmaxpu=1.5 vminpu=0.93 daily="RES_3_DO" 
New "Load.BT_8565_M2" bus1="UC20121.1.2.3.4" phases=3 conn=delta model=3 kv=0.38 kw = 0.0 pf=0.92 status=variable vmaxpu=1.5 vminpu=0.93 daily="RES_3_DO"
 
New "Load.BT_2851_M1" bus1="UC1952.2.4" phases=1 conn=delta model=2 kv=0.22 kw = 0.0 pf=0.92 status=variable vmaxpu=1.5 vminpu=0.93 daily="RES_3_DO" 
New "Load.BT_2851_M2" bus1="UC1952.2.4" phases=1 conn=delta model=3 kv=0.22 kw = 0.0 pf=0.92 status=variable vmaxpu=1.5 vminpu=0.93 daily="RES_3_DO"
 
New "Load.BT_1108_M1" bus1="UC16052.3.4" phases=1 conn=delta model=2 kv=0.22 kw = 0.0 pf=0.92 status=variable vmaxpu=1.5 vminpu=0.93 daily="RES_7_DO" 
New "Load.BT_1108_M2" bus1="UC16052.3.4" phases=1 conn=delta model=3 kv=0.22 kw = 0.0 pf=0.92 status=variable vmaxpu=1.5 vminpu=0.93 daily="RES_7_DO"
 
New "Load.BT_61_M1" bus1="UC16056.2.4" phases=1 conn=delta model=2 kv=0.22 kw = 0.0 pf=0.92 status=variable vmaxpu=1.5 vminpu=0.93 daily="RES_7_DO" 
New "Load.BT_61_M2" bus1="UC16056.2.4" phases=1 conn=delta model=3 kv=0.22 kw = 0.0 pf=0.92 status=variable vmaxpu=1.5 vminpu=0.93 daily="RES_7_DO"
 
New "Load.BT_7277_M1" bus1="UC16022.1.2.3.4" phases=3 conn=delta model=2 kv=0.38 kw = 0.0 pf=0.92 status=variable vmaxpu=1.5 vminpu=0.93 daily="RES_7_DO" 
New "Load.BT_7277_M2" bus1="UC16022.1.2.3.4" phases=3 conn=delta model=3 kv=0.38 kw = 0.0 pf=0.92 status=variable vmaxpu=1.5 vminpu=0.93 daily="RES_7_DO"
 
New "Load.BT_7621_M1" bus1="UC20113.1.4" phases=1 conn=delta model=2 kv=0.22 kw = 0.0 pf=0.92 status=variable vmaxpu=1.5 vminpu=0.93 daily="RES_3_DO" 
New "Load.BT_7621_M2" bus1="UC20113.1.4" phases=1 conn=delta model=3 kv=0.22 kw = 0.0 pf=0.92 status=variable vmaxpu=1.5 vminpu=0.93 daily="RES_3_DO"
 
New "Load.BT_7621_M1" bus1="UC20113.2.4" phases=1 conn=delta model=2 kv=0.22 kw = 0.0 pf=0.92 status=variable vmaxpu=1.5 vminpu=0.93 daily="RES_3_DO" 
New "Load.BT_7621_M2" bus1="UC20113.2.4" phases=1 conn=delta model=3 kv=0.22 kw = 0.0 pf=0.92 status=variable vmaxpu=1.5 vminpu=0.93 daily="RES_3_DO"
 
New "Load.BT_8077_M1" bus1="UC4766.2.3.4" phases=2 conn=delta model=2 kv=0.38 kw = 0.0 pf=0.92 status=variable vmaxpu=1.5 vminpu=0.93 daily="RES_3_DO" 
New "Load.BT_8077_M2" bus1="UC4766.2.3.4" phases=2 conn=delta model=3 kv=0.38 kw = 0.0 pf=0.92 status=variable vmaxpu=1.5 vminpu=0.93 daily="RES_3_DO"
 
New "Load.BT_8518_M1" bus1="UC20077.3.4" phases=1 conn=delta model=2 kv=0.22 kw = 0.0 pf=0.92 status=variable vmaxpu=1.5 vminpu=0.93 daily="RES_3_DO" 
New "Load.BT_8518_M2" bus1="UC20077.3.4" phases=1 conn=delta model=3 kv=0.22 kw = 0.0 pf=0.92 status=variable vmaxpu=1.5 vminpu=0.93 daily="RES_3_DO"
 
New "Load.BT_8518_M1" bus1="UC20077.2.4" phases=1 conn=delta model=2 kv=0.22 kw = 0.0 pf=0.92 status=variable vmaxpu=1.5 vminpu=0.93 daily="RES_7_DO" 
New "Load.BT_8518_M2" bus1="UC20077.2.4" phases=1 conn=delta model=3 kv=0.22 kw = 0.0 pf=0.92 status=variable vmaxpu=1.5 vminpu=0.93 daily="RES_7_DO"
 
New "Load.BT_8518_M1" bus1="UC20077.1.4" phases=1 conn=delta model=2 kv=0.22 kw = 0.0 pf=0.92 status=variable vmaxpu=1.5 vminpu=0.93 daily="RES_3_DO" 
New "Load.BT_8518_M2" bus1="UC20077.1.4" phases=1 conn=delta model=3 kv=0.22 kw = 0.0 pf=0.92 status=variable vmaxpu=1.5 vminpu=0.93 daily="RES_3_DO"
 
New "Load.BT_8018_M1" bus1="UC20072.1.2.3.4" phases=3 conn=delta model=2 kv=0.38 kw = 57.97001870860735 pf=0.92 status=variable vmaxpu=1.5 vminpu=0.93 daily="RES_2_DO" 
New "Load.BT_8018_M2" bus1="UC20072.1.2.3.4" phases=3 conn=delta model=3 kv=0.38 kw = 57.97001870860735 pf=0.92 status=variable vmaxpu=1.5 vminpu=0.93 daily="RES_2_DO"
 
New "Load.BT_2811_M1" bus1="UC4902.1.2.4" phases=2 conn=delta model=2 kv=0.38 kw = 37.68051216059478 pf=0.92 status=variable vmaxpu=1.5 vminpu=0.93 daily="RES_2_DO" 
New "Load.BT_2811_M2" bus1="UC4902.1.2.4" phases=2 conn=delta model=3 kv=0.38 kw = 37.68051216059478 pf=0.92 status=variable vmaxpu=1.5 vminpu=0.93 daily="RES_2_DO"
 
New "Load.BT_945_M1" bus1="UC5720.3.4" phases=1 conn=delta model=2 kv=0.22 kw = 223.1845720281383 pf=0.92 status=variable vmaxpu=1.5 vminpu=0.93 daily="RES_2_DO" 
New "Load.BT_945_M2" bus1="UC5720.3.4" phases=1 conn=delta model=3 kv=0.22 kw = 223.1845720281383 pf=0.92 status=variable vmaxpu=1.5 vminpu=0.93 daily="RES_2_DO"
 
New "Load.BT_8517_M1" bus1="UC20014.1.2.3.4" phases=3 conn=delta model=2 kv=0.38 kw = 252.16958138244198 pf=0.92 status=variable vmaxpu=1.5 vminpu=0.93 daily="RES_2_DO" 
New "Load.BT_8517_M2" bus1="UC20014.1.2.3.4" phases=3 conn=delta model=3 kv=0.38 kw = 252.16958138244198 pf=0.92 status=variable vmaxpu=1.5 vminpu=0.93 daily="RES_2_DO"
 
New "Load.BT_1925_M1" bus1="UC3106.1.4" phases=1 conn=delta model=2 kv=0.22 kw = 460.6678165502295 pf=0.92 status=variable vmaxpu=1.5 vminpu=0.93 daily="RES_1_DO" 
New "Load.BT_1925_M2" bus1="UC3106.1.4" phases=1 conn=delta model=3 kv=0.22 kw = 460.6678165502295 pf=0.92 status=variable vmaxpu=1.5 vminpu=0.93 daily="RES_1_DO"
 
New "Load.BT_663_M1" bus1="UC14776.1.2.4" phases=2 conn=delta model=2 kv=0.38 kw = 336.1862220008855 pf=0.92 status=variable vmaxpu=1.5 vminpu=0.93 daily="COM_1_DO" 
New "Load.BT_663_M2" bus1="UC14776.1.2.4" phases=2 conn=delta model=3 kv=0.38 kw = 336.1862220008855 pf=0.92 status=variable vmaxpu=1.5 vminpu=0.93 daily="COM_1_DO"
 
New "Load.BT_663_M1" bus1="UC14776.1.4" phases=1 conn=delta model=2 kv=0.22 kw = 468.38850621308245 pf=0.92 status=variable vmaxpu=1.5 vminpu=0.93 daily="RES_1_DO" 
New "Load.BT_663_M2" bus1="UC14776.1.4" phases=1 conn=delta model=3 kv=0.22 kw = 468.38850621308245 pf=0.92 status=variable vmaxpu=1.5 vminpu=0.93 daily="RES_1_DO"
 
New "Load.BT_459_M1" bus1="UC9463.3.4" phases=1 conn=delta model=2 kv=0.22 kw = 368.10961879965663 pf=0.92 status=variable vmaxpu=1.5 vminpu=0.93 daily="RES_2_DO" 
New "Load.BT_459_M2" bus1="UC9463.3.4" phases=1 conn=delta model=3 kv=0.22 kw = 368.10961879965663 pf=0.92 status=variable vmaxpu=1.5 vminpu=0.93 daily="RES_2_DO"
 
New "Load.BT_748_M1" bus1="UC3917.3.4" phases=1 conn=delta model=2 kv=0.22 kw = 652.1627104718326 pf=0.92 status=variable vmaxpu=1.5 vminpu=0.93 daily="RES_2_DO" 
New "Load.BT_748_M2" bus1="UC3917.3.4" phases=1 conn=delta model=3 kv=0.22 kw = 652.1627104718326 pf=0.92 status=variable vmaxpu=1.5 vminpu=0.93 daily="RES_2_DO"
 
New "Load.BT_7620_M1" bus1="UC20017.1.2.3.4" phases=3 conn=delta model=2 kv=0.38 kw = 996.9782682644393 pf=0.92 status=variable vmaxpu=1.5 vminpu=0.93 daily="RES_10_DO" 
New "Load.BT_7620_M2" bus1="UC20017.1.2.3.4" phases=3 conn=delta model=3 kv=0.38 kw = 996.9782682644393 pf=0.92 status=variable vmaxpu=1.5 vminpu=0.93 daily="RES_10_DO"
 
New "Load.BT_2952_M1" bus1="UC20157.3.4" phases=1 conn=delta model=2 kv=0.22 kw = 0.0 pf=0.92 status=variable vmaxpu=1.5 vminpu=0.93 daily="RES_7_DO" 
New "Load.BT_2952_M2" bus1="UC20157.3.4" phases=1 conn=delta model=3 kv=0.22 kw = 0.0 pf=0.92 status=variable vmaxpu=1.5 vminpu=0.93 daily="RES_7_DO"
 
New "Load.BT_1937_M1" bus1="UC20159.1.4" phases=1 conn=delta model=2 kv=0.22 kw = 0.0 pf=0.92 status=variable vmaxpu=1.5 vminpu=0.93 daily="RES_7_DO" 
New "Load.BT_1937_M2" bus1="UC20159.1.4" phases=1 conn=delta model=3 kv=0.22 kw = 0.0 pf=0.92 status=variable vmaxpu=1.5 vminpu=0.93 daily="RES_7_DO"
 
New "Load.BT_7292_M1" bus1="UC20158.2.3.4" phases=2 conn=delta model=2 kv=0.38 kw = 0.0 pf=0.92 status=variable vmaxpu=1.5 vminpu=0.93 daily="RES_7_DO" 
New "Load.BT_7292_M2" bus1="UC20158.2.3.4" phases=2 conn=delta model=3 kv=0.38 kw = 0.0 pf=0.92 status=variable vmaxpu=1.5 vminpu=0.93 daily="RES_7_DO"
 
New "Load.BT_8649_M1" bus1="UC16131.1.2.3.4" phases=3 conn=delta model=2 kv=0.38 kw = 0.0 pf=0.92 status=variable vmaxpu=1.5 vminpu=0.93 daily="COM_5_DO" 
New "Load.BT_8649_M2" bus1="UC16131.1.2.3.4" phases=3 conn=delta model=3 kv=0.38 kw = 0.0 pf=0.92 status=variable vmaxpu=1.5 vminpu=0.93 daily="COM_5_DO"
 
New "Load.BT_7507_M1" bus1="UC16308.2.4" phases=1 conn=delta model=2 kv=0.22 kw = 0.0 pf=0.92 status=variable vmaxpu=1.5 vminpu=0.93 daily="RES_7_DO" 
New "Load.BT_7507_M2" bus1="UC16308.2.4" phases=1 conn=delta model=3 kv=0.22 kw = 0.0 pf=0.92 status=variable vmaxpu=1.5 vminpu=0.93 daily="RES_7_DO"
 
New "Load.BT_2275_M1" bus1="UC20160.2.4" phases=1 conn=delta model=2 kv=0.22 kw = 0.0 pf=0.92 status=variable vmaxpu=1.5 vminpu=0.93 daily="RES_7_DO" 
New "Load.BT_2275_M2" bus1="UC20160.2.4" phases=1 conn=delta model=3 kv=0.22 kw = 0.0 pf=0.92 status=variable vmaxpu=1.5 vminpu=0.93 daily="RES_7_DO"
 
New "Load.BT_1838_M1" bus1="UC11113.3.4" phases=1 conn=delta model=2 kv=0.22 kw = 0.0 pf=0.92 status=variable vmaxpu=1.5 vminpu=0.93 daily="COM_5_DO" 
New "Load.BT_1838_M2" bus1="UC11113.3.4" phases=1 conn=delta model=3 kv=0.22 kw = 0.0 pf=0.92 status=variable vmaxpu=1.5 vminpu=0.93 daily="COM_5_DO"
 
New "Load.BT_2861_M1" bus1="UC1579.1.4" phases=1 conn=delta model=2 kv=0.22 kw = 237.61371392641556 pf=0.92 status=variable vmaxpu=1.5 vminpu=0.93 daily="RES_3_DO" 
New "Load.BT_2861_M2" bus1="UC1579.1.4" phases=1 conn=delta model=3 kv=0.22 kw = 237.61371392641556 pf=0.92 status=variable vmaxpu=1.5 vminpu=0.93 daily="RES_3_DO"
 
New "Load.BT_7961_M1" bus1="UC15997.2.3.4" phases=2 conn=delta model=2 kv=0.38 kw = 0.0 pf=0.92 status=variable vmaxpu=1.5 vminpu=0.93 daily="RES_3_DO" 
New "Load.BT_7961_M2" bus1="UC15997.2.3.4" phases=2 conn=delta model=3 kv=0.38 kw = 0.0 pf=0.92 status=variable vmaxpu=1.5 vminpu=0.93 daily="RES_3_DO"
 
New "Load.BT_2904_M1" bus1="UC20108.3.1.4" phases=2 conn=delta model=2 kv=0.38 kw = 0.0 pf=0.92 status=variable vmaxpu=1.5 vminpu=0.93 daily="RES_3_DO" 
New "Load.BT_2904_M2" bus1="UC20108.3.1.4" phases=2 conn=delta model=3 kv=0.38 kw = 0.0 pf=0.92 status=variable vmaxpu=1.5 vminpu=0.93 daily="RES_3_DO"
 
New "Load.BT_8511_M1" bus1="UC20109.1.2.3.4" phases=3 conn=delta model=2 kv=0.38 kw = 0.0 pf=0.92 status=variable vmaxpu=1.5 vminpu=0.93 daily="RES_3_DO" 
New "Load.BT_8511_M2" bus1="UC20109.1.2.3.4" phases=3 conn=delta model=3 kv=0.38 kw = 0.0 pf=0.92 status=variable vmaxpu=1.5 vminpu=0.93 daily="RES_3_DO"
 
New "Load.BT_463_M1" bus1="UC16004.3.4" phases=1 conn=delta model=2 kv=0.22 kw = 0.0 pf=0.92 status=variable vmaxpu=1.5 vminpu=0.93 daily="RES_7_DO" 
New "Load.BT_463_M2" bus1="UC16004.3.4" phases=1 conn=delta model=3 kv=0.22 kw = 0.0 pf=0.92 status=variable vmaxpu=1.5 vminpu=0.93 daily="RES_7_DO"
 
New "Load.BT_6668_M1" bus1="UC9379.1.4" phases=1 conn=delta model=2 kv=0.22 kw = 501.4406618294535 pf=0.92 status=variable vmaxpu=1.5 vminpu=0.93 daily="RES_2_DO" 
New "Load.BT_6668_M2" bus1="UC9379.1.4" phases=1 conn=delta model=3 kv=0.22 kw = 501.4406618294535 pf=0.92 status=variable vmaxpu=1.5 vminpu=0.93 daily="RES_2_DO"
 
New "Load.BT_2037_M1" bus1="UC4021.3.4" phases=1 conn=delta model=2 kv=0.22 kw = 333.3276075744923 pf=0.92 status=variable vmaxpu=1.5 vminpu=0.93 daily="RES_2_DO" 
New "Load.BT_2037_M2" bus1="UC4021.3.4" phases=1 conn=delta model=3 kv=0.22 kw = 333.3276075744923 pf=0.92 status=variable vmaxpu=1.5 vminpu=0.93 daily="RES_2_DO"
 
New "Load.BT_1224_M1" bus1="UC1788.1.4" phases=1 conn=delta model=2 kv=0.22 kw = 428.9781384436944 pf=0.92 status=variable vmaxpu=1.5 vminpu=0.93 daily="RES_2_DO" 
New "Load.BT_1224_M2" bus1="UC1788.1.4" phases=1 conn=delta model=3 kv=0.22 kw = 428.9781384436944 pf=0.92 status=variable vmaxpu=1.5 vminpu=0.93 daily="RES_2_DO"
 
New "Load.BT_969_M1" bus1="UC15681.1.4" phases=1 conn=delta model=2 kv=0.22 kw = 637.6702057946808 pf=0.92 status=variable vmaxpu=1.5 vminpu=0.93 daily="RES_2_DO" 
New "Load.BT_969_M2" bus1="UC15681.1.4" phases=1 conn=delta model=3 kv=0.22 kw = 637.6702057946808 pf=0.92 status=variable vmaxpu=1.5 vminpu=0.93 daily="RES_2_DO"
 
New "Load.BT_969_M1" bus1="UC15681.1.4" phases=1 conn=delta model=2 kv=0.22 kw = 34.78201122516441 pf=0.92 status=variable vmaxpu=1.5 vminpu=0.93 daily="RES_2_DO" 
New "Load.BT_969_M2" bus1="UC15681.1.4" phases=1 conn=delta model=3 kv=0.22 kw = 34.78201122516441 pf=0.92 status=variable vmaxpu=1.5 vminpu=0.93 daily="RES_2_DO"
 
New "Load.BT_8360_M1" bus1="UC15017.1.2.3.4" phases=3 conn=delta model=2 kv=0.38 kw = 86.1488167883715 pf=0.92 status=variable vmaxpu=1.5 vminpu=0.93 daily="IND_13_DO" 
...